/*--------------------------------*- C++ -*----------------------------------*\
| =========                 | OpenFOAM: v2512                                 |
\*---------------------------------------------------------------------------*/
FoamFile { version 2.0; format ascii; class dictionary; object transportProperties; }
// * * * * * * * * * * * * * * * * * * * * * * * * * * * * * * * * * * * * * //
DT              0;   // 純移流(拡散なし)。スキーム由来の数値拡散だけを見る
// ************************************************************************* //
