FoamFile
{
    format      ascii;
    class       dictionary;
    object      physicalProperties;
}

thermoType
{
    type            heRhoThermo;
    mixture         pureMixture;
    transport       const;
    thermo          hConst;
    equationOfState perfectGas;
    specie          specie;
    energy          sensibleEnthalpy;
}

mixture
{
    specie
    {
        molWeight       28.9;
    }
    thermodynamics
    {
        Cp              1000;
        hf              0;
    }
    transport
    {
        mu              1.8e-5;
        Pr              0.7;
    }
}
