/*--------------------------------*- C++ -*----------------------------------*\
| =========                 | OpenFOAM: 13                                    |
\*---------------------------------------------------------------------------*/
FoamFile { version 2.0; format ascii; class dictionary; location "constant"; object physicalProperties; }
viscosityModel  constant;
nu              1e-05;
